Version 4
SHEET 1 1664 680
WIRE 336 -80 336 -96
WIRE 560 -80 336 -80
WIRE 336 -48 336 -80
WIRE 560 -48 560 -80
WIRE 704 -16 656 -16
WIRE 832 0 800 0
WIRE 704 16 688 16
WIRE 560 48 560 32
WIRE 656 48 656 -16
WIRE 656 48 560 48
WIRE 688 80 688 16
WIRE 832 80 832 0
WIRE 832 80 688 80
WIRE 560 96 560 48
WIRE 752 96 560 96
WIRE 336 112 336 32
WIRE 336 112 176 112
WIRE 80 128 -16 128
WIRE 224 144 176 144
WIRE -16 240 -16 128
WIRE 336 240 336 192
WIRE 336 240 -16 240
WIRE 624 240 336 240
WIRE 752 240 752 176
WIRE 752 240 704 240
WIRE 832 240 752 240
WIRE 864 240 832 240
WIRE 336 272 336 240
WIRE 224 352 224 144
FLAG -208 96 VCC
FLAG 336 -96 VCC
FLAG 336 352 0
FLAG 224 352 0
FLAG -208 176 0
FLAG 832 240 VOUT
FLAG 832 80 0
SYMBOL AutoGenerated\\LM4041_N_ADJC1P233 128 128 R0
WINDOW 3 12 -95 Top 2
WINDOW 39 -81 -122 Top 2
SYMATTR InstName U1
SYMBOL voltage -208 80 R0
WINDOW 123 0 0 Left 0
WINDOW 39 0 0 Left 0
SYMATTR InstName V1
SYMATTR Value 10
SYMBOL res 320 96 R0
SYMATTR InstName R1
SYMATTR Value 12.3K
SYMBOL res 320 256 R0
SYMATTR InstName R2
SYMATTR Value {Rthermistor}
SYMBOL res 320 -64 R0
SYMATTR InstName R3
SYMATTR Value 10K
SYMBOL res 720 224 R90
WINDOW 0 0 56 VBottom 2
WINDOW 3 32 56 VTop 2
SYMATTR InstName R4
SYMATTR Value 330k
SYMBOL res 544 -64 R0
SYMATTR InstName R6
SYMATTR Value 10K
SYMBOL res 736 80 R0
SYMATTR InstName R5
SYMATTR Value 1Meg
SYMBOL AutoGenerated\\LM4041_N_ADJC1P233 752 0 M0
WINDOW 3 12 -95 Top 2
WINDOW 39 -81 -122 Top 2
SYMATTR InstName U2
TEXT -240 376 Left 2 !.op
TEXT -240 400 Left 2 !.step param Rthermistor 1K 2K
TEXT 584 400 Left 2 ;Thermistor is 1.5K at 85°C
TEXT 880 232 Left 2 ;VOUT connected to RST input of TPS3808, which triggers at 400mV
