Version 4
SHEET 1 1560 680
WIRE -144 -96 -144 -144
WIRE -144 0 -144 -16
WIRE -144 0 -288 0
WIRE -144 16 -144 0
WIRE 400 16 -144 16
WIRE 656 32 656 -32
WIRE 656 32 464 32
WIRE 400 48 208 48
WIRE -144 80 -144 16
WIRE 112 128 64 128
WIRE 208 144 208 48
WIRE 208 144 176 144
WIRE 416 144 208 144
WIRE 16 160 -144 160
WIRE 112 160 16 160
WIRE -144 176 -144 160
WIRE 64 224 64 128
WIRE 272 224 64 224
WIRE 416 224 272 224
WIRE -288 256 -288 0
WIRE 64 256 64 224
WIRE -144 288 -144 256
WIRE -144 288 -256 288
WIRE -144 320 -144 288
WIRE -288 448 -288 320
WIRE -144 448 -144 400
WIRE 64 464 64 336
FLAG 144 112 VCC
FLAG 144 176 0
FLAG 64 464 0
FLAG -144 -144 VCC
FLAG -288 448 0
FLAG -960 384 VCC
FLAG -960 464 0
FLAG 16 160 VREF
FLAG 272 224 VFB
FLAG -144 448 0
FLAG 432 64 0
FLAG 432 0 VCC
FLAG 656 -112 VCC
FLAG 656 32 VCOMPOUT
SYMBOL OpAmps\\OP07 144 80 R0
SYMATTR InstName U1
SYMBOL res 400 128 R0
SYMATTR InstName R1
SYMATTR Value {Rthermistor}
SYMBOL res 48 240 R0
SYMATTR InstName R2
SYMATTR Value 20K
SYMBOL res -160 -112 R0
SYMATTR InstName R4
SYMATTR Value 10K
SYMBOL voltage -960 368 R0
WINDOW 123 0 0 Left 0
WINDOW 39 0 0 Left 0
SYMATTR InstName V1
SYMATTR Value 5V
SYMBOL Parts_TCO\\TLV431 -288 288 R0
SYMATTR InstName U2
SYMBOL res -160 160 R0
SYMATTR InstName R3
SYMATTR Value 12K
SYMBOL res -160 304 R0
SYMATTR InstName R5
SYMATTR Value 20k
SYMBOL res -160 64 R0
SYMATTR InstName R6
SYMATTR Value 8.2k
SYMBOL Parts_TCO\\TS391 432 -32 R0
SYMATTR InstName U3
SYMBOL res 640 -128 R0
SYMATTR InstName R7
SYMATTR Value 10K
TEXT -978 296 Left 2 !.op
TEXT -976 272 Left 2 !;.dc V1 3 6
TEXT 264 280 Left 2 !.param Rthermistor=10K
TEXT 264 304 Left 2 !.step param Rthermistor 1.5K 10K 50
TEXT 760 80 Left 2 ;2-wire measurement of thermistor is independent of ground bounce.
