Version 4
SHEET 1 3312 680
WIRE -688 -96 -688 -112
WIRE -528 -96 -688 -96
WIRE -688 -64 -688 -96
WIRE -528 -64 -528 -96
WIRE -688 48 -688 16
WIRE -608 48 -688 48
WIRE -144 48 -608 48
WIRE 112 64 112 0
WIRE 112 64 -80 64
WIRE -528 80 -528 16
WIRE -416 80 -528 80
WIRE -144 80 -416 80
WIRE -608 112 -608 48
WIRE -288 144 -416 80
WIRE -688 256 -688 48
WIRE -528 256 -528 80
WIRE -608 288 -608 192
WIRE -608 288 -656 288
WIRE -416 288 -288 224
WIRE -416 288 -496 288
WIRE -608 368 -608 288
WIRE -688 480 -688 320
WIRE -608 480 -608 448
WIRE -528 480 -528 320
WIRE -416 480 -416 368
FLAG -960 384 VCC
FLAG -960 464 0
FLAG -416 480 0
FLAG -688 -112 VCC
FLAG -688 480 0
FLAG -112 96 0
FLAG -112 32 VCC
FLAG 112 -80 VCC
FLAG -528 480 0
FLAG -608 480 0
SYMBOL voltage -960 368 R0
WINDOW 123 0 0 Left 0
WINDOW 39 0 0 Left 0
SYMATTR InstName V1
SYMATTR Value 5V
SYMBOL res -304 128 R0
SYMATTR InstName R8
SYMATTR Value {Rthermistor}
SYMBOL res -432 272 R0
SYMATTR InstName R9
SYMATTR Value 13K
SYMBOL res -704 -80 R0
SYMATTR InstName R10
SYMATTR Value 10K
SYMBOL Parts_TCO\\TLV431 -688 288 R0
SYMATTR InstName U5
SYMBOL Parts_TCO\\TS391 -112 0 R0
SYMATTR InstName U6
SYMBOL res 96 -96 R0
SYMATTR InstName R14
SYMATTR Value 10K
SYMBOL Parts_TCO\\TLV431 -528 288 R0
SYMATTR InstName U4
SYMBOL res -544 -80 R0
SYMATTR InstName R15
SYMATTR Value 10K
SYMBOL res -624 96 R0
SYMATTR InstName R11
SYMATTR Value 1K
SYMBOL res -624 352 R0
SYMATTR InstName R12
SYMATTR Value 12K
SYMBOL res -48 -96 R90
WINDOW 0 0 56 VBottom 2
WINDOW 3 32 56 VTop 2
SYMATTR InstName R1
TEXT -978 296 Left 2 !.op
TEXT -976 272 Left 2 !;.dc V1 3 6
TEXT -64 184 Left 2 !.param Rthermistor=10K
TEXT -64 208 Left 2 !.step param Rthermistor 500 1.5K
TEXT -56 232 Left 2 ;2-wire measurement of thermistor is independent of ground bounce.
TEXT -648 -144 Left 2 ;Result is independent of VCC
TEXT -328 336 Left 2 ;Thermistor current must be < 100µA
TEXT -320 368 Left 2 ;Example thermistor : NCP18XH103F03RB
TEXT 144 48 Left 2 ;Comparator output low when Rthermistor < 1K
TEXT -1000 -208 Left 4 ;Is this circuit a good idea?  It will be harder to thermally couple the thermistor when it's not electrically coupled.
TEXT -152 -144 Left 2 ;Hysteresis
