Version 4
SHEET 1 2136 680
WIRE 1824 -16 1776 -16
WIRE 1936 -16 1888 -16
WIRE 352 0 304 0
WIRE 464 0 416 0
WIRE 1488 80 1216 80
WIRE 1584 80 1488 80
WIRE 1664 80 1648 80
WIRE 1776 80 1776 -16
WIRE 1776 80 1744 80
WIRE 1808 80 1776 80
WIRE 1936 80 1936 -16
WIRE 1936 80 1888 80
WIRE 2048 80 1936 80
WIRE 16 96 -96 96
WIRE 112 96 16 96
WIRE 192 96 176 96
WIRE 304 96 304 0
WIRE 304 96 272 96
WIRE 336 96 304 96
WIRE 464 96 464 0
WIRE 464 96 416 96
WIRE 576 96 464 96
WIRE 2048 112 2048 80
WIRE -544 128 -544 0
WIRE 576 128 576 96
WIRE 1488 144 1488 80
WIRE 1776 144 1776 80
WIRE 1936 144 1936 80
WIRE 16 160 16 96
WIRE 304 160 304 96
WIRE 464 160 464 96
WIRE -544 288 -544 208
WIRE 1488 288 1488 208
WIRE 1776 288 1776 208
WIRE 1936 288 1936 208
WIRE 2048 288 2048 192
WIRE 16 304 16 224
WIRE 304 304 304 224
WIRE 464 304 464 224
WIRE 576 304 576 208
FLAG -544 288 0
FLAG 16 304 0
FLAG 304 304 0
FLAG 464 304 0
FLAG 576 304 0
FLAG 1488 288 0
FLAG 1776 288 0
FLAG 1936 288 0
FLAG 2048 288 0
FLAG 576 96 K9PDP_OUT
FLAG 2048 80 NM0S_OUT
FLAG -544 0 VAC
FLAG -96 96 VAC
FLAG 1216 80 VAC
SYMBOL cap 0 160 R0
SYMATTR InstName C1
SYMATTR Value 129p
SYMBOL cap 176 80 R90
WINDOW 0 0 32 VBottom 2
WINDOW 3 32 32 VTop 2
SYMATTR InstName C2
SYMATTR Value 155.1p
SYMBOL cap 416 -16 R90
WINDOW 0 0 32 VBottom 2
WINDOW 3 32 32 VTop 2
SYMATTR InstName C3
SYMATTR Value 172.73p
SYMBOL cap 320 224 R180
WINDOW 0 24 56 Left 2
WINDOW 3 24 8 Left 2
SYMATTR InstName C4
SYMATTR Value 1075p
SYMBOL cap 480 224 R180
WINDOW 0 24 56 Left 2
WINDOW 3 24 8 Left 2
SYMATTR InstName C5
SYMATTR Value 704.2p
SYMBOL ind 176 112 R270
WINDOW 0 32 56 VTop 2
WINDOW 3 5 56 VBottom 2
SYMATTR InstName L2
SYMATTR Value 1.11µ
SYMBOL ind 320 112 R270
WINDOW 0 32 56 VTop 2
WINDOW 3 5 56 VBottom 2
SYMATTR InstName L3
SYMATTR Value 200n
SYMBOL res 560 112 R0
SYMATTR InstName R1
SYMATTR Value 50
SYMBOL voltage -544 112 R0
WINDOW 123 24 124 Left 2
WINDOW 39 0 0 Left 0
SYMATTR InstName V1
SYMATTR Value 0
SYMATTR Value2 AC 1
SYMBOL cap 1472 144 R0
SYMATTR InstName C6
SYMATTR Value 230.12p
SYMBOL cap 1648 64 R90
WINDOW 0 0 32 VBottom 2
WINDOW 3 32 32 VTop 2
SYMATTR InstName C7
SYMATTR Value 987.31p
SYMBOL cap 1888 -32 R90
WINDOW 0 0 32 VBottom 2
WINDOW 3 32 32 VTop 2
SYMATTR InstName C8
SYMATTR Value 185.30p
SYMBOL cap 1792 208 R180
WINDOW 0 24 56 Left 2
WINDOW 3 24 8 Left 2
SYMATTR InstName C9
SYMATTR Value 555.89p
SYMBOL cap 1952 208 R180
WINDOW 0 24 56 Left 2
WINDOW 3 24 8 Left 2
SYMATTR InstName C10
SYMATTR Value 555.89p
SYMBOL ind 1648 96 R270
WINDOW 0 32 56 VTop 2
WINDOW 3 5 56 VBottom 2
SYMATTR InstName L1
SYMATTR Value .33µ
SYMBOL ind 1792 96 R270
WINDOW 0 32 56 VTop 2
WINDOW 3 5 56 VBottom 2
SYMATTR InstName L4
SYMATTR Value 190n
SYMBOL res 2032 96 R0
SYMATTR InstName R2
SYMATTR Value 50
TEXT -430 344 Right 2 !.ac dec 101 1meg 1g
TEXT -264 -328 Left 7 ;K9PDP Design
TEXT 1416 -312 Left 7 ;NM0S Design
